/*--------------------------------*- C++ -*----------------------------------*\
| =========                 |                                                 |
| \\      /  F ield         | OpenFOAM: The Open Source CFD Toolbox           |
|  \\    /   O peration     | Version:  2.1.x                                 |
|   \\  /    A nd           | Web:      www.OpenFOAM.org                      |
|    \\/     M anipulation  |                                                 |
\*---------------------------------------------------------------------------*/
FoamFile
{
    version     2.0;
    format      ascii;
    class       volScalarField;
    object      p_rgh;
}
// * * * * * * * * * * * * * * * * * * * * * * * * * * * * * * * * * * * * * //

dimensions      [0 2 -2 0 0 0 0];

internalField   uniform 0;

boundaryField
{
    upperWall      
    {
        type            fixedFluxPressure;
        rho             rhok;
        value           uniform 0;
    }

    leftWall     
    {
        type            fixedFluxPressure;
        rho             rhok;
        value           uniform 0;
    }

    rightWall     
    {
        type            fixedFluxPressure;
        rho             rhok;
        value           uniform 0;
    }

    lowerWall    
    {
        type            fixedFluxPressure;
        rho             rhok;
        value           uniform 0;
    }

    frontAndBack    
    {
        type            empty;
    }
}

// ************************************************************************* //
